Test_Network/condensed/network_17/Feeder_1/LinesUnq.txt
New Line.LINE171_1 Bus1=171_1 Bus2=171_2 phases=3 Linecode=3c_300_SAC_XC Length=0.44359 Units=m
New Line.LINE171_2 Bus1=171_2 Bus2=171_3 phases=3 Linecode=3c_300_SAC_XC Length=0.038329 Units=m
New Line.LINE171_3 Bus1=171_3 Bus2=171_4 phases=3 Linecode=3c_300_SAC_XC Length=0.039115 Units=m
New Line.LINE171_4 Bus1=171_4 Bus2=171_5 phases=3 Linecode=3c_300_SAC_XC Length=0.038118 Units=m
New Line.LINE171_5 Bus1=171_5 Bus2=171_6 phases=3 Linecode=3c_300_SAC_XC Length=0.038602 Units=m
New Line.LINE171_6 Bus1=171_6 Bus2=171_7 phases=3 Linecode=3c_300_SAC_XC Length=0.038483 Units=m
New Line.LINE171_7 Bus1=171_7 Bus2=171_8 phases=3 Linecode=3c_300_SAC_XC Length=0.039408 Units=m
New Line.LINE171_8 Bus1=171_8 Bus2=171_9 phases=3 Linecode=3c_300_SAC_XC Length=0.03821 Units=m
New Line.LINE171_9 Bus1=171_9 Bus2=171_10 phases=3 Linecode=3c_300_SAC_XC Length=0.038834 Units=m
New Line.LINE171_10 Bus1=171_10 Bus2=171_11 phases=3 Linecode=3c_300_SAC_XC Length=0.67833 Units=m
New Line.LINE171_11 Bus1=171_11 Bus2=171_12 phases=3 Linecode=3c_300_SAC_XC Length=0.89525 Units=m
New Line.LINE171_12 Bus1=171_12 Bus2=171_13 phases=3 Linecode=3c_300_SAC_XC Length=0.25852 Units=m
New Line.LINE171_13 Bus1=171_13 Bus2=171_14 phases=3 Linecode=3c_300_SAC_XC Length=0.25726 Units=m
New Line.LINE171_14 Bus1=171_14 Bus2=171_15 phases=3 Linecode=3c_300_SAC_XC Length=0.25812 Units=m
New Line.LINE171_15 Bus1=171_15 Bus2=171_16 phases=3 Linecode=3c_300_SAC_XC Length=0.25767 Units=m
New Line.LINE171_16 Bus1=171_16 Bus2=171_17 phases=3 Linecode=3c_300_SAC_XC Length=0.2583 Units=m
New Line.LINE171_17 Bus1=171_17 Bus2=171_18 phases=3 Linecode=3c_300_SAC_XC Length=3.6805 Units=m
New Line.LINE171_18 Bus1=171_18 Bus2=171_19 phases=3 Linecode=3c_300_SAC_XC Length=0.27293 Units=m
New Line.LINE171_19 Bus1=171_19 Bus2=171_20 phases=3 Linecode=3c_300_SAC_XC Length=0.27242 Units=m
New Line.LINE171_20 Bus1=171_20 Bus2=171_21 phases=3 Linecode=3c_300_SAC_XC Length=0.65867 Units=m
New Line.LINE171_21 Bus1=171_21 Bus2=171_22 phases=3 Linecode=3c_300_SAC_XC Length=0.18811 Units=m
New Line.LINE171_22 Bus1=171_22 Bus2=171_23 phases=3 Linecode=3c_300_SAC_XC Length=0.18645 Units=m
New Line.LINE171_23 Bus1=171_23 Bus2=171_24 phases=3 Linecode=3c_300_SAC_XC Length=0.23089 Units=m
New Line.LINE171_24 Bus1=171_24 Bus2=171_25 phases=3 Linecode=3c_300_SAC_XC Length=0.26314 Units=m
New Line.LINE171_25 Bus1=171_25 Bus2=171_26 phases=3 Linecode=3c_300_SAC_XC Length=29.9951 Units=m
New Line.LINE171_26 Bus1=171_26 Bus2=171_27 phases=3 Linecode=3c_300_SAC_XC Length=0.95847 Units=m
New Line.LINE171_27 Bus1=171_27 Bus2=171_28 phases=3 Linecode=3c_300_SAC_XC Length=0.3904 Units=m
New Line.LINE171_28 Bus1=171_28 Bus2=171_29 phases=3 Linecode=3c_300_SAC_XC Length=0.39102 Units=m
New Line.LINE171_29 Bus1=171_29 Bus2=171_30 phases=3 Linecode=3c_300_SAC_XC Length=0.18681 Units=m
New Line.LINE171_30 Bus1=171_30 Bus2=171_31 phases=3 Linecode=3c_300_SAC_XC Length=0.34318 Units=m
New Line.LINE171_31 Bus1=171_31 Bus2=171_32 phases=3 Linecode=3c_300_SAC_XC Length=0.56873 Units=m
New Line.LINE171_32 Bus1=171_32 Bus2=171_33 phases=3 Linecode=4c_.25 Length=1.5571 Units=m
New Line.LINE171_33 Bus1=171_32 Bus2=171_34 phases=3 Linecode=4c_.25 Length=1.5571 Units=m
New Line.LINE171_34 Bus1=171_33 Bus2=171_35 phases=3 Linecode=4c_.25 Length=7.5169 Units=m
New Line.LINE171_35 Bus1=171_33 Bus2=171_36 phases=3 Linecode=4c_.25 Length=7.5169 Units=m
New Line.LINE171_36 Bus1=171_35 Bus2=171_37 phases=3 Linecode=4c_.25 Length=1.1775 Units=m
New Line.LINE171_37 Bus1=171_35 Bus2=171_38 phases=3 Linecode=4c_.25 Length=1.1775 Units=m
New Line.LINE171_38 Bus1=171_37 Bus2=171_39 phases=3 Linecode=4c_.25 Length=0.406 Units=m
New Line.LINE171_39 Bus1=171_37 Bus2=171_40 phases=3 Linecode=4c_.25 Length=0.406 Units=m
New Line.LINE171_40 Bus1=171_39 Bus2=171_41 phases=3 Linecode=4c_.25 Length=0.38134 Units=m
New Line.LINE171_41 Bus1=171_39 Bus2=171_42 phases=3 Linecode=4c_.25 Length=0.38134 Units=m
New Line.LINE171_42 Bus1=171_41 Bus2=171_43 phases=3 Linecode=4c_.25 Length=0.41665 Units=m
New Line.LINE171_43 Bus1=171_41 Bus2=171_44 phases=3 Linecode=4c_.25 Length=0.41665 Units=m
New Line.LINE171_44 Bus1=171_43 Bus2=171_45 phases=3 Linecode=4c_.25 Length=0.2658 Units=m
New Line.LINE171_45 Bus1=171_43 Bus2=171_46 phases=3 Linecode=4c_.25 Length=0.2658 Units=m
New Line.LINE171_46 Bus1=171_45 Bus2=171_47 phases=3 Linecode=4c_.25 Length=0.2377 Units=m
New Line.LINE171_47 Bus1=171_45 Bus2=171_48 phases=3 Linecode=4c_.25 Length=0.2377 Units=m
New Line.LINE171_48 Bus1=171_47 Bus2=171_49 phases=3 Linecode=4c_.25 Length=0.23755 Units=m
New Line.LINE171_49 Bus1=171_47 Bus2=171_50 phases=3 Linecode=4c_.25 Length=0.23755 Units=m
New Line.LINE171_50 Bus1=171_49 Bus2=171_51 phases=3 Linecode=4c_.25 Length=1.0978 Units=m
New Line.LINE171_51 Bus1=171_49 Bus2=171_52 phases=3 Linecode=4c_.25 Length=1.0978 Units=m
New Line.LINE171_52 Bus1=171_51 Bus2=171_53 phases=3 Linecode=4c_.25 Length=23.3695 Units=m
New Line.LINE171_53 Bus1=171_51 Bus2=171_54 phases=3 Linecode=4c_.25 Length=23.3695 Units=m
New Line.LINE171_54 Bus1=171_53 Bus2=171_55 phases=3 Linecode=4c_.25 Length=1.9527 Units=m
New Line.LINE171_55 Bus1=171_53 Bus2=171_56 phases=3 Linecode=2c_.04 Length=6.7095 Units=m
New Line.LINE171_56 Bus1=171_53 Bus2=171_57 phases=3 Linecode=4c_.25 Length=1.9527 Units=m
New Line.LINE171_57 Bus1=171_55 Bus2=171_58 phases=3 Linecode=4c_.25 Length=5.6386 Units=m
New Line.LINE171_58 Bus1=171_55 Bus2=171_59 phases=3 Linecode=4c_.25 Length=5.2414 Units=m
New Line.LINE171_59 Bus1=171_56 Bus2=171_60 phases=3 Linecode=2c_.04 Length=2.8976 Units=m
New Line.LINE171_60 Bus1=171_56 Bus2=171_61 phases=3 Linecode=2c_.04 Length=6.048 Units=m
New Line.LINE171_61 Bus1=171_58 Bus2=171_62 phases=3 Linecode=4c_.25 Length=4.8727 Units=m
New Line.LINE171_62 Bus1=171_58 Bus2=171_63 phases=3 Linecode=4c_.25 Length=4.8727 Units=m
New Line.LINE171_63 Bus1=171_58 Bus2=171_64 phases=3 Linecode=4c_.25 Length=0.3972 Units=m
New Line.LINE171_64 Bus1=171_59 Bus2=171_65 phases=3 Linecode=4_XC Length=0.15116 Units=m
New Line.LINE171_65 Bus1=171_60 Bus2=171_66 phases=3 Linecode=2c_.04 Length=0.72226 Units=m
New Line.LINE171_66 Bus1=171_61 Bus2=171_67 phases=3 Linecode=2c_.04 Length=0.17875 Units=m
New Line.LINE171_67 Bus1=171_62 Bus2=171_68 phases=3 Linecode=4c_.25 Length=24.3926 Units=m
New Line.LINE171_68 Bus1=171_62 Bus2=171_69 phases=3 Linecode=4c_.25 Length=11.3398 Units=m
New Line.LINE171_69 Bus1=171_65 Bus2=171_70 phases=3 Linecode=4_XC Length=0.04653 Units=m
New Line.LINE171_70 Bus1=171_66 Bus2=171_71 phases=3 Linecode=2c_.04 Length=0.27216 Units=m
New Line.LINE171_71 Bus1=171_67 Bus2=171_72 phases=3 Linecode=2c_.04 Length=0.14625 Units=m
New Line.LINE171_72 Bus1=171_68 Bus2=171_73 phases=3 Linecode=4c_.25 Length=7.4333 Units=m
New Line.LINE171_73 Bus1=171_68 Bus2=171_74 phases=3 Linecode=4c_.25 Length=7.4333 Units=m
New Line.LINE171_74 Bus1=171_68 Bus2=171_75 phases=3 Linecode=4c_.25 Length=13.0528 Units=m
New Line.LINE171_75 Bus1=171_69 Bus2=171_76 phases=3 Linecode=4c_.25 Length=0.081295 Units=m
New Line.LINE171_76 Bus1=171_70 Bus2=171_77 phases=3 Linecode=4_XC Length=0.047127 Units=m
New Line.LINE171_77 Bus1=171_71 Bus2=171_78 phases=3 Linecode=2c_.04 Length=0.21658 Units=m
New Line.LINE171_78 Bus1=171_72 Bus2=171_79 phases=3 Linecode=2c_.04 Length=0.1004 Units=m
New Line.LINE171_79 Bus1=171_73 Bus2=171_80 phases=3 Linecode=4c_.25 Length=8.054 Units=m
New Line.LINE171_80 Bus1=171_73 Bus2=171_81 phases=3 Linecode=4c_.25 Length=8.054 Units=m
New Line.LINE171_81 Bus1=171_76 Bus2=171_82 phases=3 Linecode=4c_.25 Length=0.073246 Units=m
New Line.LINE171_82 Bus1=171_77 Bus2=171_83 phases=3 Linecode=4_XC Length=0.047012 Units=m
New Line.LINE171_83 Bus1=171_78 Bus2=171_84 phases=3 Linecode=2c_.04 Length=0.23577 Units=m
New Line.LINE171_84 Bus1=171_79 Bus2=171_85 phases=3 Linecode=2c_.04 Length=0.15728 Units=m
New Line.LINE171_85 Bus1=171_80 Bus2=171_86 phases=3 Linecode=4c_.25 Length=3.1751 Units=m
New Line.LINE171_86 Bus1=171_80 Bus2=171_87 phases=3 Linecode=4c_.25 Length=3.1751 Units=m
New Line.LINE171_87 Bus1=171_82 Bus2=171_88 phases=3 Linecode=4c_.25 Length=0.073111 Units=m
New Line.LINE171_88 Bus1=171_83 Bus2=171_89 phases=3 Linecode=4_XC Length=0.04701 Units=m
New Line.LINE171_89 Bus1=171_84 Bus2=171_90 phases=3 Linecode=2c_.04 Length=0.21333 Units=m
New Line.LINE171_90 Bus1=171_85 Bus2=171_91 phases=3 Linecode=2c_.04 Length=0.22716 Units=m
New Line.LINE171_91 Bus1=171_86 Bus2=171_92 phases=3 Linecode=4c_.25 Length=3.7711 Units=m
New Line.LINE171_92 Bus1=171_86 Bus2=171_93 phases=3 Linecode=4c_.25 Length=3.7711 Units=m
New Line.LINE171_93 Bus1=171_88 Bus2=171_94 phases=3 Linecode=4c_.25 Length=0.073429 Units=m
New Line.LINE171_94 Bus1=171_89 Bus2=171_95 phases=3 Linecode=4_XC Length=0.047424 Units=m
New Line.LINE171_95 Bus1=171_90 Bus2=171_96 phases=3 Linecode=2c_.04 Length=0.43307 Units=m
New Line.LINE171_96 Bus1=171_91 Bus2=171_97 phases=3 Linecode=2c_.04 Length=0.47756 Units=m
New Line.LINE171_97 Bus1=171_92 Bus2=171_98 phases=3 Linecode=4c_.25 Length=3.1145 Units=m
New Line.LINE171_98 Bus1=171_92 Bus2=171_99 phases=3 Linecode=4c_.25 Length=0.90537 Units=m
New Line.LINE171_99 Bus1=171_94 Bus2=171_100 phases=3 Linecode=4c_.25 Length=0.073056 Units=m
New Line.LINE171_100 Bus1=171_95 Bus2=171_101 phases=3 Linecode=4_XC Length=0.046648 Units=m
New Line.LINE171_101 Bus1=171_96 Bus2=171_102 phases=3 Linecode=2c_.04 Length=3.3635 Units=m
New Line.LINE171_102 Bus1=171_96 Bus2=171_103 phases=3 Linecode=2c_.04 Length=0.56626 Units=m
New Line.LINE171_103 Bus1=171_97 Bus2=171_104 phases=3 Linecode=2c_.04 Length=4.0329 Units=m
New Line.LINE171_104 Bus1=171_97 Bus2=171_105 phases=3 Linecode=2c_.04 Length=0.71111 Units=m
New Line.LINE171_105 Bus1=171_97 Bus2=171_106 phases=3 Linecode=2c_.04 Length=0.71111 Units=m
New Line.LINE171_106 Bus1=171_98 Bus2=171_107 phases=3 Linecode=4c_.25 Length=16.2428 Units=m
New Line.LINE171_107 Bus1=171_99 Bus2=171_108 phases=3 Linecode=4c_.25 Length=0.76234 Units=m
New Line.LINE171_108 Bus1=171_100 Bus2=171_109 phases=3 Linecode=4c_.25 Length=0.07269 Units=m
New Line.LINE171_109 Bus1=171_101 Bus2=171_110 phases=3 Linecode=4_XC Length=1.495 Units=m
New Line.LINE171_110 Bus1=171_103 Bus2=171_111 phases=3 Linecode=2c_.04 Length=0.24616 Units=m
New Line.LINE171_111 Bus1=171_105 Bus2=171_112 phases=3 Linecode=2c_.04 Length=0.22682 Units=m
New Line.LINE171_112 Bus1=171_105 Bus2=171_113 phases=3 Linecode=2c_.04 Length=0.22682 Units=m
New Line.LINE171_113 Bus1=171_107 Bus2=171_114 phases=3 Linecode=4_XC Length=0.45843 Units=m
New Line.LINE171_114 Bus1=171_107 Bus2=171_115 phases=3 Linecode=4c_.25 Length=8.3151 Units=m
New Line.LINE171_115 Bus1=171_108 Bus2=171_116 phases=3 Linecode=4c_.25 Length=0.6952 Units=m
New Line.LINE171_116 Bus1=171_109 Bus2=171_117 phases=3 Linecode=4c_.25 Length=0.073029 Units=m
New Line.LINE171_117 Bus1=171_111 Bus2=171_118 phases=3 Linecode=2c_.04 Length=0.18256 Units=m
New Line.LINE171_118 Bus1=171_112 Bus2=171_119 phases=3 Linecode=2c_.04 Length=0.116 Units=m
New Line.LINE171_119 Bus1=171_112 Bus2=171_120 phases=3 Linecode=2c_.04 Length=0.116 Units=m
New Line.LINE171_120 Bus1=171_114 Bus2=171_121 phases=3 Linecode=4_XC Length=0.050606 Units=m
New Line.LINE171_121 Bus1=171_115 Bus2=171_122 phases=3 Linecode=2c_.007 Length=1.4077 Units=m
New Line.LINE171_122 Bus1=171_115 Bus2=171_123 phases=3 Linecode=4c_.25 Length=4.1369 Units=m
New Line.LINE171_123 Bus1=171_116 Bus2=171_124 phases=3 Linecode=4c_.25 Length=0.85981 Units=m
New Line.LINE171_124 Bus1=171_117 Bus2=171_125 phases=3 Linecode=4c_.25 Length=0.07278 Units=m
New Line.LINE171_125 Bus1=171_118 Bus2=171_126 phases=3 Linecode=2c_.04 Length=0.14066 Units=m
New Line.LINE171_126 Bus1=171_119 Bus2=171_127 phases=3 Linecode=2c_.04 Length=0.13396 Units=m
New Line.LINE171_127 Bus1=171_119 Bus2=171_128 phases=3 Linecode=2c_.04 Length=0.13396 Units=m
New Line.LINE171_128 Bus1=171_121 Bus2=171_129 phases=3 Linecode=4_XC Length=0.050992 Units=m
New Line.LINE171_129 Bus1=171_122 Bus2=171_130 phases=3 Linecode=2c_.007 Length=0.1085 Units=m
New Line.LINE171_130 Bus1=171_123 Bus2=171_131 phases=3 Linecode=2c_.04 Length=7.2512 Units=m
New Line.LINE171_131 Bus1=171_123 Bus2=171_132 phases=3 Linecode=4c_.25 Length=15.1099 Units=m
New Line.LINE171_132 Bus1=171_124 Bus2=171_133 phases=3 Linecode=4c_.25 Length=0.78933 Units=m
New Line.LINE171_133 Bus1=171_125 Bus2=171_134 phases=3 Linecode=4c_.25 Length=0.073537 Units=m
New Line.LINE171_134 Bus1=171_126 Bus2=171_135 phases=3 Linecode=2c_.04 Length=0.28307 Units=m
New Line.LINE171_135 Bus1=171_127 Bus2=171_136 phases=3 Linecode=2c_.04 Length=0.053601 Units=m
New Line.LINE171_136 Bus1=171_127 Bus2=171_137 phases=3 Linecode=2c_.04 Length=0.053601 Units=m
New Line.LINE171_137 Bus1=171_129 Bus2=171_138 phases=3 Linecode=4_XC Length=0.050773 Units=m
New Line.LINE171_138 Bus1=171_130 Bus2=171_139 phases=3 Linecode=2c_.007 Length=0.10802 Units=m
New Line.LINE171_139 Bus1=171_131 Bus2=171_140 phases=3 Linecode=2c_.04 Length=0.79305 Units=m
New Line.LINE171_140 Bus1=171_131 Bus2=171_141 phases=3 Linecode=2c_.04 Length=4.6693 Units=m
New Line.LINE171_141 Bus1=171_132 Bus2=171_142 phases=3 Linecode=4c_.25 Length=4.6041 Units=m
New Line.LINE171_142 Bus1=171_133 Bus2=171_143 phases=3 Linecode=4c_.25 Length=1.3106 Units=m
New Line.LINE171_143 Bus1=171_134 Bus2=171_144 phases=3 Linecode=4c_.25 Length=0.63124 Units=m
New Line.LINE171_144 Bus1=171_135 Bus2=171_145 phases=3 Linecode=2c_.04 Length=4.6961 Units=m
New Line.LINE171_145 Bus1=171_136 Bus2=171_146 phases=3 Linecode=2c_.04 Length=0.12468 Units=m
New Line.LINE171_146 Bus1=171_136 Bus2=171_147 phases=3 Linecode=2c_.04 Length=0.12468 Units=m
New Line.LINE171_147 Bus1=171_138 Bus2=171_148 phases=3 Linecode=4_XC Length=0.05108 Units=m
New Line.LINE171_148 Bus1=171_139 Bus2=171_149 phases=3 Linecode=2c_.007 Length=0.10826 Units=m
New Line.LINE171_149 Bus1=171_140 Bus2=171_150 phases=3 Linecode=2c_.04 Length=0.36054 Units=m
New Line.LINE171_150 Bus1=171_142 Bus2=171_151 phases=3 Linecode=2c_.04 Length=6.0658 Units=m
New Line.LINE171_151 Bus1=171_142 Bus2=171_152 phases=3 Linecode=4c_.25 Length=2.1491 Units=m
New Line.LINE171_152 Bus1=171_143 Bus2=171_153 phases=3 Linecode=4c_.25 Length=1.8988 Units=m
New Line.LINE171_153 Bus1=171_145 Bus2=171_154 phases=3 Linecode=2c_.04 Length=0.57339 Units=m
New Line.LINE171_154 Bus1=171_146 Bus2=171_155 phases=3 Linecode=2c_.04 Length=1.4705 Units=m
New Line.LINE171_155 Bus1=171_146 Bus2=171_156 phases=3 Linecode=2c_.04 Length=1.4705 Units=m
New Line.LINE171_156 Bus1=171_148 Bus2=171_157 phases=3 Linecode=4_XC Length=0.050009 Units=m
New Line.LINE171_157 Bus1=171_149 Bus2=171_158 phases=3 Linecode=2c_.007 Length=0.10863 Units=m
New Line.LINE171_158 Bus1=171_150 Bus2=171_159 phases=3 Linecode=2c_.04 Length=0.1964 Units=m
New Line.LINE171_159 Bus1=171_151 Bus2=171_160 phases=3 Linecode=2c_.04 Length=1.7592 Units=m
New Line.LINE171_160 Bus1=171_151 Bus2=171_161 phases=3 Linecode=2c_.04 Length=3.6253 Units=m
New Line.LINE171_161 Bus1=171_152 Bus2=171_162 phases=3 Linecode=4c_.25 Length=7.9157 Units=m
New Line.LINE171_162 Bus1=171_153 Bus2=171_163 phases=3 Linecode=4c_.25 Length=3.282 Units=m
New Line.LINE171_163 Bus1=171_154 Bus2=171_164 phases=3 Linecode=2c_.04 Length=0.22665 Units=m
New Line.LINE171_164 Bus1=171_155 Bus2=171_165 phases=3 Linecode=2c_.04 Length=4.0441 Units=m
New Line.LINE171_165 Bus1=171_157 Bus2=171_166 phases=3 Linecode=4_XC Length=0.051039 Units=m
New Line.LINE171_166 Bus1=171_158 Bus2=171_167 phases=3 Linecode=2c_.007 Length=0.10876 Units=m
New Line.LINE171_167 Bus1=171_159 Bus2=171_168 phases=3 Linecode=2c_.04 Length=0.29925 Units=m
New Line.LINE171_168 Bus1=171_160 Bus2=171_169 phases=3 Linecode=2c_.04 Length=0.20381 Units=m
New Line.LINE171_169 Bus1=171_161 Bus2=171_170 phases=3 Linecode=2c_.04 Length=0.50921 Units=m
New Line.LINE171_170 Bus1=171_162 Bus2=171_171 phases=3 Linecode=4c_.25 Length=6.5848 Units=m
New Line.LINE171_171 Bus1=171_163 Bus2=171_172 phases=3 Linecode=4c_.25 Length=3.7647 Units=m
New Line.LINE171_172 Bus1=171_164 Bus2=171_173 phases=3 Linecode=2c_.04 Length=0.1562 Units=m
New Line.LINE171_173 Bus1=171_165 Bus2=171_174 phases=3 Linecode=2c_.04 Length=0.22718 Units=m
New Line.LINE171_174 Bus1=171_166 Bus2=171_175 phases=3 Linecode=4_XC Length=0.051351 Units=m
New Line.LINE171_175 Bus1=171_167 Bus2=171_176 phases=3 Linecode=2c_.007 Length=0.1083 Units=m
New Line.LINE171_176 Bus1=171_168 Bus2=171_177 phases=3 Linecode=2c_.04 Length=0.70078 Units=m
New Line.LINE171_177 Bus1=171_169 Bus2=171_178 phases=3 Linecode=2c_.04 Length=0.1006 Units=m
New Line.LINE171_178 Bus1=171_170 Bus2=171_179 phases=3 Linecode=2c_.04 Length=0.212 Units=m
New Line.LINE171_179 Bus1=171_171 Bus2=171_180 phases=3 Linecode=4c_.25 Length=0.92352 Units=m
New Line.LINE171_180 Bus1=171_172 Bus2=171_181 phases=3 Linecode=4c_.25 Length=0.75749 Units=m
New Line.LINE171_181 Bus1=171_173 Bus2=171_182 phases=3 Linecode=2c_.04 Length=0.16808 Units=m
New Line.LINE171_182 Bus1=171_174 Bus2=171_183 phases=3 Linecode=2c_.04 Length=0.17429 Units=m
New Line.LINE171_183 Bus1=171_175 Bus2=171_184 phases=3 Linecode=4_XC Length=0.2833 Units=m
New Line.LINE171_184 Bus1=171_176 Bus2=171_185 phases=3 Linecode=2c_.007 Length=0.1078 Units=m
New Line.LINE171_185 Bus1=171_177 Bus2=171_186 phases=3 Linecode=2c_.04 Length=2.6552 Units=m
New Line.LINE171_186 Bus1=171_178 Bus2=171_187 phases=3 Linecode=2c_.04 Length=0.14848 Units=m
New Line.LINE171_187 Bus1=171_179 Bus2=171_188 phases=3 Linecode=2c_.04 Length=0.071868 Units=m
New Line.LINE171_188 Bus1=171_180 Bus2=171_189 phases=3 Linecode=4c_.25 Length=6.0162 Units=m
New Line.LINE171_189 Bus1=171_181 Bus2=171_190 phases=3 Linecode=2c_.007 Length=0.5269 Units=m
New Line.LINE171_190 Bus1=171_181 Bus2=171_191 phases=3 Linecode=4c_.25 Length=1.0508 Units=m
New Line.LINE171_191 Bus1=171_182 Bus2=171_192 phases=3 Linecode=2c_.04 Length=0.2448 Units=m
New Line.LINE171_192 Bus1=171_183 Bus2=171_193 phases=3 Linecode=2c_.04 Length=0.12379 Units=m
New Line.LINE171_193 Bus1=171_185 Bus2=171_194 phases=3 Linecode=2c_.007 Length=0.10867 Units=m
New Line.LINE171_194 Bus1=171_186 Bus2=171_195 phases=3 Linecode=2c_.04 Length=2.1263 Units=m
New Line.LINE171_195 Bus1=171_187 Bus2=171_196 phases=3 Linecode=2c_.04 Length=0.15775 Units=m
New Line.LINE171_196 Bus1=171_188 Bus2=171_197 phases=3 Linecode=2c_.04 Length=0.068469 Units=m
New Line.LINE171_197 Bus1=171_189 Bus2=171_198 phases=3 Linecode=4c_.25 Length=8.6005 Units=m
New Line.LINE171_198 Bus1=171_190 Bus2=171_199 phases=3 Linecode=2c_.007 Length=0.27797 Units=m
New Line.LINE171_199 Bus1=171_191 Bus2=171_200 phases=3 Linecode=4c_.25 Length=9.4937 Units=m
New Line.LINE171_200 Bus1=171_192 Bus2=171_201 phases=3 Linecode=2c_.04 Length=0.67246 Units=m
...
